LTspice 24.1.5 for Windows
Circuit: C:\Users\harri\Documents\github\PLL\simulations\vco.net
Start Time: Tue May 13 01:09:11 2025
Options: noopiter
solver = Normal
Maximum thread count: 16
tnom = 27
temp = 27
method = trap
noOpIter = true
Direct Newton iteration for .op point skipped.
Starting Gmin stepping
Gmin = 10
Gmin = 1.07374
Gmin = 0.115292
Gmin = 0.0123794
Gmin = 0.00132923
Gmin = 0.000142725
vernier = 0.5
vernier = 0.25
vernier = 0.125
vernier = 0.0625
vernier = 0.03125
Gmin = 8.99332e-05
vernier = 0.0416667
vernier = 0.0555555
Gmin = 8.14305e-05
vernier = 0.074074
Gmin = 6.93411e-05
vernier = 0.0987653
vernier = 0.131687
Gmin = 5.33656e-05
vernier = 0.175583
vernier = 0.23411
Gmin = 3.5352e-05
vernier = 0.312147
Gmin = 1.82699e-05
vernier = 0.416196
vernier = 0.554928
Gmin = 6.33735e-06
vernier = 0.739903
vernier = 0.986537
Gmin = 1.2435e-06
vernier = 1
Gmin = 1.35332e-07
Gmin = 1.45312e-08
Gmin = 1.56028e-09
Gmin = 1.67533e-10
Gmin = 1.79888e-11
Gmin = 1.93153e-12
Gmin = 2.07396e-13
Gmin = 0
Gmin stepping succeeded in finding the operating point.

.step r=5000 c=1e-14 rst=5000
.step r=10000 c=1e-14 rst=5000
.step r=20000 c=1e-14 rst=5000
.step r=40000 c=1e-14 rst=5000
.step r=56000 c=1e-14 rst=5000
.step r=80000 c=1e-14 rst=5000
.step r=100000 c=1e-14 rst=5000
.step r=5000 c=1e-13 rst=5000
.step r=10000 c=1e-13 rst=5000
.step r=20000 c=1e-13 rst=5000
.step r=40000 c=1e-13 rst=5000
.step r=56000 c=1e-13 rst=5000
.step r=80000 c=1e-13 rst=5000
.step r=100000 c=1e-13 rst=5000
.step r=5000 c=1e-12 rst=5000
.step r=10000 c=1e-12 rst=5000
.step r=20000 c=1e-12 rst=5000
.step r=40000 c=1e-12 rst=5000
.step r=56000 c=1e-12 rst=5000
.step r=80000 c=1e-12 rst=5000
.step r=100000 c=1e-12 rst=5000
.step r=5000 c=1e-11 rst=5000
.step r=10000 c=1e-11 rst=5000
.step r=20000 c=1e-11 rst=5000
.step r=40000 c=1e-11 rst=5000
.step r=56000 c=1e-11 rst=5000
.step r=80000 c=1e-11 rst=5000
.step r=100000 c=1e-11 rst=5000
.step r=5000 c=1e-10 rst=5000
.step r=10000 c=1e-10 rst=5000
.step r=20000 c=1e-10 rst=5000
.step r=40000 c=1e-10 rst=5000
.step r=56000 c=1e-10 rst=5000
.step r=80000 c=1e-10 rst=5000
.step r=100000 c=1e-10 rst=5000
.step r=5000 c=1e-09 rst=5000
.step r=10000 c=1e-09 rst=5000
.step r=20000 c=1e-09 rst=5000
.step r=40000 c=1e-09 rst=5000
.step r=56000 c=1e-09 rst=5000
.step r=80000 c=1e-09 rst=5000
.step r=100000 c=1e-09 rst=5000
.step r=5000 c=1e-14 rst=10000
.step r=10000 c=1e-14 rst=10000
.step r=20000 c=1e-14 rst=10000
.step r=40000 c=1e-14 rst=10000
.step r=56000 c=1e-14 rst=10000
.step r=80000 c=1e-14 rst=10000
.step r=100000 c=1e-14 rst=10000
.step r=5000 c=1e-13 rst=10000
.step r=10000 c=1e-13 rst=10000
.step r=20000 c=1e-13 rst=10000
.step r=40000 c=1e-13 rst=10000
.step r=56000 c=1e-13 rst=10000
.step r=80000 c=1e-13 rst=10000
.step r=100000 c=1e-13 rst=10000
.step r=5000 c=1e-12 rst=10000
.step r=10000 c=1e-12 rst=10000
.step r=20000 c=1e-12 rst=10000
.step r=40000 c=1e-12 rst=10000
.step r=56000 c=1e-12 rst=10000
.step r=80000 c=1e-12 rst=10000
.step r=100000 c=1e-12 rst=10000
.step r=5000 c=1e-11 rst=10000
.step r=10000 c=1e-11 rst=10000
.step r=20000 c=1e-11 rst=10000
.step r=40000 c=1e-11 rst=10000
.step r=56000 c=1e-11 rst=10000
.step r=80000 c=1e-11 rst=10000
.step r=100000 c=1e-11 rst=10000
.step r=5000 c=1e-10 rst=10000
.step r=10000 c=1e-10 rst=10000
.step r=20000 c=1e-10 rst=10000
.step r=40000 c=1e-10 rst=10000
.step r=56000 c=1e-10 rst=10000
.step r=80000 c=1e-10 rst=10000
.step r=100000 c=1e-10 rst=10000
.step r=5000 c=1e-09 rst=10000
.step r=10000 c=1e-09 rst=10000
.step r=20000 c=1e-09 rst=10000
.step r=40000 c=1e-09 rst=10000
.step r=56000 c=1e-09 rst=10000
.step r=80000 c=1e-09 rst=10000
.step r=100000 c=1e-09 rst=10000
.step r=5000 c=1e-14 rst=20000
.step r=10000 c=1e-14 rst=20000
.step r=20000 c=1e-14 rst=20000
.step r=40000 c=1e-14 rst=20000
.step r=56000 c=1e-14 rst=20000
.step r=80000 c=1e-14 rst=20000
.step r=100000 c=1e-14 rst=20000
.step r=5000 c=1e-13 rst=20000
.step r=10000 c=1e-13 rst=20000
.step r=20000 c=1e-13 rst=20000
.step r=40000 c=1e-13 rst=20000
.step r=56000 c=1e-13 rst=20000
.step r=80000 c=1e-13 rst=20000
.step r=100000 c=1e-13 rst=20000
.step r=5000 c=1e-12 rst=20000
.step r=10000 c=1e-12 rst=20000
.step r=20000 c=1e-12 rst=20000
.step r=40000 c=1e-12 rst=20000
.step r=56000 c=1e-12 rst=20000
.step r=80000 c=1e-12 rst=20000
.step r=100000 c=1e-12 rst=20000
.step r=5000 c=1e-11 rst=20000
.step r=10000 c=1e-11 rst=20000
.step r=20000 c=1e-11 rst=20000
.step r=40000 c=1e-11 rst=20000
.step r=56000 c=1e-11 rst=20000
.step r=80000 c=1e-11 rst=20000
.step r=100000 c=1e-11 rst=20000
.step r=5000 c=1e-10 rst=20000
.step r=10000 c=1e-10 rst=20000
.step r=20000 c=1e-10 rst=20000
.step r=40000 c=1e-10 rst=20000
.step r=56000 c=1e-10 rst=20000
.step r=80000 c=1e-10 rst=20000
.step r=100000 c=1e-10 rst=20000
.step r=5000 c=1e-09 rst=20000
.step r=10000 c=1e-09 rst=20000
.step r=20000 c=1e-09 rst=20000
.step r=40000 c=1e-09 rst=20000
.step r=56000 c=1e-09 rst=20000
.step r=80000 c=1e-09 rst=20000
.step r=100000 c=1e-09 rst=20000
.step r=5000 c=1e-14 rst=40000
.step r=10000 c=1e-14 rst=40000
.step r=20000 c=1e-14 rst=40000
.step r=40000 c=1e-14 rst=40000
.step r=56000 c=1e-14 rst=40000
.step r=80000 c=1e-14 rst=40000
.step r=100000 c=1e-14 rst=40000
.step r=5000 c=1e-13 rst=40000
.step r=10000 c=1e-13 rst=40000
.step r=20000 c=1e-13 rst=40000
.step r=40000 c=1e-13 rst=40000
.step r=56000 c=1e-13 rst=40000
.step r=80000 c=1e-13 rst=40000
.step r=100000 c=1e-13 rst=40000
.step r=5000 c=1e-12 rst=40000
.step r=10000 c=1e-12 rst=40000
.step r=20000 c=1e-12 rst=40000
.step r=40000 c=1e-12 rst=40000
.step r=56000 c=1e-12 rst=40000
.step r=80000 c=1e-12 rst=40000
.step r=100000 c=1e-12 rst=40000
.step r=5000 c=1e-11 rst=40000
.step r=10000 c=1e-11 rst=40000
.step r=20000 c=1e-11 rst=40000
.step r=40000 c=1e-11 rst=40000
.step r=56000 c=1e-11 rst=40000
.step r=80000 c=1e-11 rst=40000
.step r=100000 c=1e-11 rst=40000
.step r=5000 c=1e-10 rst=40000
.step r=10000 c=1e-10 rst=40000
.step r=20000 c=1e-10 rst=40000
.step r=40000 c=1e-10 rst=40000
.step r=56000 c=1e-10 rst=40000
.step r=80000 c=1e-10 rst=40000
.step r=100000 c=1e-10 rst=40000
.step r=5000 c=1e-09 rst=40000
.step r=10000 c=1e-09 rst=40000
.step r=20000 c=1e-09 rst=40000
.step r=40000 c=1e-09 rst=40000
.step r=56000 c=1e-09 rst=40000
.step r=80000 c=1e-09 rst=40000
.step r=100000 c=1e-09 rst=40000
.step r=5000 c=1e-14 rst=56000
.step r=10000 c=1e-14 rst=56000
.step r=20000 c=1e-14 rst=56000
.step r=40000 c=1e-14 rst=56000
.step r=56000 c=1e-14 rst=56000
.step r=80000 c=1e-14 rst=56000
.step r=100000 c=1e-14 rst=56000
.step r=5000 c=1e-13 rst=56000
.step r=10000 c=1e-13 rst=56000
.step r=20000 c=1e-13 rst=56000
.step r=40000 c=1e-13 rst=56000
.step r=56000 c=1e-13 rst=56000
.step r=80000 c=1e-13 rst=56000
.step r=100000 c=1e-13 rst=56000
.step r=5000 c=1e-12 rst=56000
.step r=10000 c=1e-12 rst=56000
.step r=20000 c=1e-12 rst=56000
.step r=40000 c=1e-12 rst=56000
.step r=56000 c=1e-12 rst=56000
.step r=80000 c=1e-12 rst=56000
.step r=100000 c=1e-12 rst=56000
.step r=5000 c=1e-11 rst=56000
.step r=10000 c=1e-11 rst=56000
.step r=20000 c=1e-11 rst=56000
.step r=40000 c=1e-11 rst=56000
.step r=56000 c=1e-11 rst=56000
.step r=80000 c=1e-11 rst=56000
.step r=100000 c=1e-11 rst=56000
.step r=5000 c=1e-10 rst=56000
.step r=10000 c=1e-10 rst=56000
.step r=20000 c=1e-10 rst=56000
.step r=40000 c=1e-10 rst=56000
.step r=56000 c=1e-10 rst=56000
.step r=80000 c=1e-10 rst=56000
.step r=100000 c=1e-10 rst=56000
.step r=5000 c=1e-09 rst=56000
.step r=10000 c=1e-09 rst=56000
.step r=20000 c=1e-09 rst=56000
.step r=40000 c=1e-09 rst=56000
.step r=56000 c=1e-09 rst=56000
.step r=80000 c=1e-09 rst=56000
.step r=100000 c=1e-09 rst=56000
.step r=5000 c=1e-14 rst=80000
.step r=10000 c=1e-14 rst=80000
.step r=20000 c=1e-14 rst=80000
.step r=40000 c=1e-14 rst=80000
.step r=56000 c=1e-14 rst=80000
.step r=80000 c=1e-14 rst=80000
.step r=100000 c=1e-14 rst=80000
.step r=5000 c=1e-13 rst=80000
.step r=10000 c=1e-13 rst=80000
.step r=20000 c=1e-13 rst=80000
.step r=40000 c=1e-13 rst=80000
.step r=56000 c=1e-13 rst=80000
.step r=80000 c=1e-13 rst=80000
.step r=100000 c=1e-13 rst=80000
.step r=5000 c=1e-12 rst=80000
.step r=10000 c=1e-12 rst=80000
.step r=20000 c=1e-12 rst=80000
.step r=40000 c=1e-12 rst=80000
.step r=56000 c=1e-12 rst=80000
.step r=80000 c=1e-12 rst=80000
.step r=100000 c=1e-12 rst=80000
.step r=5000 c=1e-11 rst=80000
.step r=10000 c=1e-11 rst=80000
.step r=20000 c=1e-11 rst=80000
.step r=40000 c=1e-11 rst=80000
.step r=56000 c=1e-11 rst=80000
.step r=80000 c=1e-11 rst=80000
.step r=100000 c=1e-11 rst=80000
.step r=5000 c=1e-10 rst=80000
.step r=10000 c=1e-10 rst=80000
.step r=20000 c=1e-10 rst=80000
.step r=40000 c=1e-10 rst=80000
.step r=56000 c=1e-10 rst=80000
.step r=80000 c=1e-10 rst=80000
.step r=100000 c=1e-10 rst=80000
.step r=5000 c=1e-09 rst=80000
.step r=10000 c=1e-09 rst=80000
.step r=20000 c=1e-09 rst=80000
.step r=40000 c=1e-09 rst=80000
.step r=56000 c=1e-09 rst=80000
.step r=80000 c=1e-09 rst=80000
.step r=100000 c=1e-09 rst=80000
.step r=5000 c=1e-14 rst=100000
.step r=10000 c=1e-14 rst=100000
.step r=20000 c=1e-14 rst=100000
.step r=40000 c=1e-14 rst=100000
.step r=56000 c=1e-14 rst=100000
.step r=80000 c=1e-14 rst=100000
.step r=100000 c=1e-14 rst=100000
.step r=5000 c=1e-13 rst=100000
.step r=10000 c=1e-13 rst=100000
.step r=20000 c=1e-13 rst=100000
.step r=40000 c=1e-13 rst=100000
.step r=56000 c=1e-13 rst=100000
.step r=80000 c=1e-13 rst=100000
.step r=100000 c=1e-13 rst=100000
.step r=5000 c=1e-12 rst=100000
.step r=10000 c=1e-12 rst=100000
.step r=20000 c=1e-12 rst=100000
.step r=40000 c=1e-12 rst=100000
.step r=56000 c=1e-12 rst=100000
.step r=80000 c=1e-12 rst=100000
.step r=100000 c=1e-12 rst=100000
.step r=5000 c=1e-11 rst=100000
.step r=10000 c=1e-11 rst=100000
.step r=20000 c=1e-11 rst=100000
.step r=40000 c=1e-11 rst=100000
.step r=56000 c=1e-11 rst=100000
.step r=80000 c=1e-11 rst=100000
.step r=100000 c=1e-11 rst=100000
.step r=5000 c=1e-10 rst=100000
.step r=10000 c=1e-10 rst=100000
.step r=20000 c=1e-10 rst=100000
.step r=40000 c=1e-10 rst=100000
.step r=56000 c=1e-10 rst=100000
.step r=80000 c=1e-10 rst=100000
.step r=100000 c=1e-10 rst=100000
.step r=5000 c=1e-09 rst=100000
.step r=10000 c=1e-09 rst=100000
.step r=20000 c=1e-09 rst=100000
.step r=40000 c=1e-09 rst=100000
.step r=56000 c=1e-09 rst=100000
.step r=80000 c=1e-09 rst=100000
.step r=100000 c=1e-09 rst=100000
Total elapsed time: 2159.136 seconds.

Files loaded:
C:\Users\harri\Documents\github\PLL\simulations\vco.net
C:\Users\harri\AppData\Local\LTspice\lib\cmp\standard.mos
C:\Users\harri\Documents\LTspice\lib\LM324.lib
C:\Users\harri\Documents\LTspice\lib\BS170.lib
C:\Users\harri\Documents\LTspice\lib\74hct.lib
C:\Users\harri\AppData\Local\LTspice\lib\sub\UniversalOpAmp2.lib


Measurement: t1
  step	t1	FROM	TO
     1	failed
     2	failed
     3	0.0099588089838	4.11910161987e-05	0.01
     4	0.00995277895552	4.7221044481e-05	0.01
     5	0.00994222633162	5.77736683803e-05	0.01
     6	0.0099357058761	6.42941238962e-05	0.01
     7	0.00993578762866	6.42123713362e-05	0.01
     8	failed
     9	failed
    10	0.00996244020449	3.75597955077e-05	0.01
    11	0.0099588075384	4.11924616045e-05	0.01
    12	0.00996028235243	3.97176475689e-05	0.01
    13	0.00996090946143	3.90905385703e-05	0.01
    14	0.00996261747565	3.73825243533e-05	0.01
    15	failed
    16	failed
    17	0.00996268680815	3.731319185e-05	0.01
    18	0.00996306431236	3.69356876418e-05	0.01
    19	0.00996182965902	3.81703409847e-05	0.01
    20	0.00996246360714	3.75363928635e-05	0.01
    21	0.00996016162866	3.9838371339e-05	0.01
    22	failed
    23	failed
    24	0.00995239339153	4.7606608472e-05	0.01
    25	0.00994151671052	5.84832894812e-05	0.01
    26	0.00993589781371	6.41021862918e-05	0.01
    27	0.00992938315382	7.06168461842e-05	0.01
    28	0.00992412214869	7.5877851306e-05	0.01
    29	failed
    30	failed
    31	0.00981920897514	0.000180791024862	0.01
    32	0.00980689237251	0.000193107627486	0.01
    33	0.00976121590135	0.00023878409865	0.01
    34	0.00970947162533	0.00029052837467	0.01
    35	0.00965768048457	0.000342319515435	0.01
    36	failed
    37	failed
    38	0.00879071915833	0.00120928084167	0.01
    39	0.00863634845263	0.00136365154737	0.01
    40	0.00817211291857	0.00182788708143	0.01
    41	0.00758491504883	0.00241508495117	0.01
    42	0.0070861439548	0.0029138560452	0.01
    43	failed
    44	failed
    45	0.00996156889134	3.84311086611e-05	0.01
    46	0.00995152284093	4.84771590677e-05	0.01
    47	0.00994203412028	5.79658797193e-05	0.01
    48	0.00993751362706	6.24863729391e-05	0.01
    49	0.00993848214364	6.15178563614e-05	0.01
    50	failed
    51	failed
    52	0.00996240223283	3.75977671664e-05	0.01
    53	0.00996139254946	3.86074505419e-05	0.01
    54	0.00996135245528	3.86475447211e-05	0.01
    55	0.00996154811841	3.84518815862e-05	0.01
    56	0.00996088004038	3.91199596177e-05	0.01
    57	failed
    58	failed
    59	0.00996427571719	3.57242828124e-05	0.01
    60	0.00996281610992	3.7183890084e-05	0.01
    61	0.00996335492193	3.6645078072e-05	0.01
    62	0.00995875373445	4.12462655526e-05	0.01
    63	0.00995799244005	4.20075599528e-05	0.01
    64	failed
    65	failed
    66	0.00995245776215	4.75422378524e-05	0.01
    67	0.00994149190242	5.8508097581e-05	0.01
    68	0.00993561045189	6.43895481075e-05	0.01
    69	0.00992944962638	7.05503736173e-05	0.01
    70	0.00992192144024	7.80785597552e-05	0.01
    71	failed
    72	failed
    73	0.00981907703748	0.00018092296252	0.01
    74	0.00981861502023	0.000181384979775	0.01
    75	0.00976093407486	0.000239065925137	0.01
    76	0.00970931370544	0.000290686294561	0.01
    77	0.00964764530991	0.000352354690087	0.01
    78	failed
    79	failed
    80	0.00883804643471	0.00116195356529	0.01
    81	0.00863529335725	0.00136470664275	0.01
    82	0.008108927509	0.001891072491	0.01
    83	0.00758273047256	0.00241726952744	0.01
    84	0.00708334795671	0.00291665204329	0.01
    85	failed
    86	failed
    87	0.00995990132096	4.00986790389e-05	0.01
    88	0.0099519040014	4.8095998601e-05	0.01
    89	0.00994202596103	5.79740389727e-05	0.01
    90	0.00993903773398	6.09622660171e-05	0.01
    91	0.00993832581396	6.16741860374e-05	0.01
    92	failed
    93	failed
    94	0.00996076948955	3.92305104497e-05	0.01
    95	0.00996123293261	3.87670673893e-05	0.01
    96	0.00995852440404	4.14755959601e-05	0.01
    97	0.00996209363805	3.79063619539e-05	0.01
    98	0.00996173359453	3.82664054721e-05	0.01
    99	failed
   100	failed
   101	0.00996421193516	3.57880648445e-05	0.01
   102	0.00996328445471	3.67155452944e-05	0.01
   103	0.00996315326161	3.68467383929e-05	0.01
   104	0.00996295559321	3.70444067887e-05	0.01
   105	0.00995758869953	4.24113004665e-05	0.01
   106	failed
   107	failed
   108	0.00994963572096	5.03642790364e-05	0.01
   109	0.00994590839555	5.40916044456e-05	0.01
   110	0.00993482803716	6.5171962842e-05	0.01
   111	0.0099275981186	7.24018813953e-05	0.01
   112	0.0099218344141	7.81655859029e-05	0.01
   113	failed
   114	failed
   115	0.00982590405937	0.000174095940635	0.01
   116	0.00981849712872	0.00018150287128	0.01
   117	0.0097609600286	0.000239039971404	0.01
   118	0.00970931531618	0.000290684683817	0.01
   119	0.0096573249318	0.000342675068198	0.01
   120	failed
   121	failed
   122	0.00883779757156	0.00116220242844	0.01
   123	0.00863472869884	0.00136527130116	0.01
   124	0.00810798444458	0.00189201555542	0.01
   125	0.00758148454349	0.00241851545651	0.01
   126	0.00700909291791	0.00299090708209	0.01
   127	failed
   128	failed
   129	0.00996039314673	3.96068532738e-05	0.01
   130	0.00995108679074	4.89132092586e-05	0.01
   131	0.00994306243206	5.69375679385e-05	0.01
   132	0.00993875041162	6.12495883804e-05	0.01
   133	0.00996307583208	3.69241679238e-05	0.01
   134	failed
   135	failed
   136	0.00996002017588	3.99798241184e-05	0.01
   137	0.00996056333356	3.94366664415e-05	0.01
   138	0.00995816478244	4.18352175554e-05	0.01
   139	0.00996116913035	3.88308696521e-05	0.01
   140	0.0099685452961	3.14547039044e-05	0.01
   141	failed
   142	failed
   143	0.00996302287883	3.6977121169e-05	0.01
   144	0.00996251842148	3.74815785178e-05	0.01
   145	0.00996296972981	3.70302701877e-05	0.01
   146	0.00995996741515	4.00325848512e-05	0.01
   147	0.00995822814001	4.17718599933e-05	0.01
   148	failed
   149	failed
   150	0.00995232245222	4.76775477845e-05	0.01
   151	0.00994154906502	5.84509349816e-05	0.01
   152	0.00993591251508	6.4087484925e-05	0.01
   153	0.00992761615251	7.23838474914e-05	0.01
   154	0.00992353268135	7.64673186459e-05	0.01
   155	failed
   156	failed
   157	0.00981910532816	0.000180894671835	0.01
   158	0.00981854515781	0.000181454842193	0.01
   159	0.00976955920316	0.000230440796842	0.01
   160	0.00970906337768	0.000290936622323	0.01
   161	0.00964738516538	0.000352614834616	0.01
   162	failed
   163	failed
   164	0.00883766460771	0.00116233539229	0.01
   165	0.0086343861664	0.0013656138336	0.01
   166	0.0081075448087	0.0018924551913	0.01
   167	0.00758095345596	0.00241904654404	0.01
   168	0.00700854036884	0.00299145963116	0.01
   169	failed
   170	failed
   171	0.00995927277227	4.0727227729e-05	0.01
   172	0.00995285246146	4.71475385376e-05	0.01
   173	0.00994249705268	5.75029473165e-05	0.01
   174	0.00993770287891	6.22971210912e-05	0.01
   175	0.00993844948455	6.15505154523e-05	0.01
   176	failed
   177	failed
   178	0.00996288164141	3.71183585934e-05	0.01
   179	0.00996111678555	3.88832144502e-05	0.01
   180	0.00996053165571	3.94683442921e-05	0.01
   181	0.00996260885025	3.73911497488e-05	0.01
   182	0.00996290884442	3.7091155577e-05	0.01
   183	failed
   184	failed
   185	0.00996137548979	3.86245102087e-05	0.01
   186	0.00996225810305	3.77418969478e-05	0.01
   187	0.00996174415006	3.82558499368e-05	0.01
   188	0.0099618560696	3.8143930403e-05	0.01
   189	0.00995820033848	4.17996615181e-05	0.01
   190	failed
   191	failed
   192	0.0099495451277	5.04548722975e-05	0.01
   193	0.00994149212389	5.85078761071e-05	0.01
   194	0.00993596636499	6.40336350131e-05	0.01
   195	0.00992745554098	7.25444590215e-05	0.01
   196	0.00992410182117	7.58981788301e-05	0.01
   197	failed
   198	failed
   199	0.0098259695437	0.0001740304563	0.01
   200	0.00981846168786	0.000181538312136	0.01
   201	0.00976080535511	0.00023919464489	0.01
   202	0.00970911678387	0.000290883216133	0.01
   203	0.00964729412387	0.000352705876126	0.01
   204	failed
   205	failed
   206	0.0087897641686	0.0012102358314	0.01
   207	0.008634203283	0.001365796717	0.01
   208	0.00810740915678	0.00189259084322	0.01
   209	0.00758069342202	0.00241930657798	0.01
   210	0.00708085317378	0.00291914682622	0.01
   211	failed
   212	failed
   213	0.00996139994661	3.86000533904e-05	0.01
   214	0.00995396886205	4.60311379532e-05	0.01
   215	0.00994503063304	5.49693669626e-05	0.01
   216	0.00993721522394	6.27847760589e-05	0.01
   217	0.00993939530672	6.06046932752e-05	0.01
   218	failed
   219	failed
   220	0.00996079962628	3.92003737213e-05	0.01
   221	0.00995940027874	4.05997212639e-05	0.01
   222	0.0099604797866	3.95202134037e-05	0.01
   223	0.00995987929603	4.01207039699e-05	0.01
   224	0.00995859471402	4.14052859842e-05	0.01
   225	failed
   226	failed
   227	0.00996258554712	3.74144528841e-05	0.01
   228	0.0099621521929	3.78478070977e-05	0.01
   229	0.00996084102782	3.91589721779e-05	0.01
   230	0.00996265544692	3.73445530809e-05	0.01
   231	0.00995736200969	4.26379903054e-05	0.01
   232	failed
   233	failed
   234	0.00995241656038	4.7583439618e-05	0.01
   235	0.00994155556932	5.84444306799e-05	0.01
   236	0.00993509132192	6.49086780751e-05	0.01
   237	0.00992944953476	7.05504652416e-05	0.01
   238	0.00992408665867	7.59133413274e-05	0.01
   239	failed
   240	failed
   241	0.00982590708707	0.000174092912927	0.01
   242	0.00981846219835	0.000181537801649	0.01
   243	0.00976966006247	0.000230339937529	0.01
   244	0.00970905919715	0.000290940802848	0.01
   245	0.00964731951166	0.000352680488342	0.01
   246	failed
   247	failed
   248	0.0088374986852	0.0011625013148	0.01
   249	0.00863419982418	0.00136580017582	0.01
   250	0.00810731730377	0.00189268269623	0.01
   251	0.00751317310852	0.00248682689148	0.01
   252	0.00708078797075	0.00291921202925	0.01
   253	failed
   254	failed
   255	0.00995952054595	4.04794540455e-05	0.01
   256	0.009952670503	4.73294970014e-05	0.01
   257	0.00994242996435	5.75700356479e-05	0.01
   258	0.00993394356256	6.60564374403e-05	0.01
   259	0.00993388766981	6.61123301893e-05	0.01
   260	failed
   261	failed
   262	0.00995857094174	4.14290582586e-05	0.01
   263	0.00995977370145	4.02262985528e-05	0.01
   264	0.00995838888921	4.16111107933e-05	0.01
   265	0.00996234889984	3.76511001607e-05	0.01
   266	0.00995887925943	4.11207405701e-05	0.01
   267	failed
   268	failed
   269	0.00996322713175	3.67728682487e-05	0.01
   270	0.00996364385223	3.63561477715e-05	0.01
   271	0.00996152435848	3.84756415221e-05	0.01
   272	0.00996243570698	3.75642930243e-05	0.01
   273	0.00996744946944	3.25822094201e-05	0.0100000316789
   274	failed
   275	failed
   276	0.00995218012481	4.78198751898e-05	0.01
   277	0.00994156821418	5.84317858195e-05	0.01
   278	0.0099352290219	6.47709780971e-05	0.01
   279	0.00992741623134	7.25837686648e-05	0.01
   280	0.00992409998096	7.59000190443e-05	0.01
   281	failed
   282	failed
   283	0.00982596828787	0.000174031712132	0.01
   284	0.00981851328261	0.000181486717388	0.01
   285	0.00976078793265	0.000239212067352	0.01
   286	0.00969970165019	0.000300298349807	0.01
   287	0.00964728771033	0.000352712289671	0.01
   288	failed
   289	failed
   290	0.00897209203877	0.00102794358053	0.0100000356193
   291	0.00863420205286	0.00136579794714	0.01
   292	0.00810730381345	0.00189269618655	0.01
   293	0.00751307204466	0.00248692795534	0.01
   294	0.0070076254678	0.0029923745322	0.01

Measurement: t2
  step	t2	FROM	TO
     1	failed
     2	failed
     3	0.00995541836455	4.45816354452e-05	0.01
     4	0.00994943828933	5.05617106727e-05	0.01
     5	0.00993885731882	6.11426811768e-05	0.01
     6	0.0099324255399	6.7574460097e-05	0.01
     7	0.0099324987712	6.75012287991e-05	0.01
     8	failed
     9	failed
    10	0.00995897744064	4.102255936e-05	0.01
    11	0.00995547170575	4.45282942497e-05	0.01
    12	0.00995690333254	4.30966674591e-05	0.01
    13	0.00995768254976	4.23174502405e-05	0.01
    14	0.0099593414007	4.06585993015e-05	0.01
    15	failed
    16	failed
    17	0.00995897019932	4.10298006791e-05	0.01
    18	0.00995922970637	4.0770293635e-05	0.01
    19	0.00995798713123	4.20128687726e-05	0.01
    20	0.00995844256983	4.15574301674e-05	0.01
    21	0.00995599010129	4.40098987129e-05	0.01
    22	failed
    23	failed
    24	0.00994697743755	5.30225624536e-05	0.01
    25	0.00993527744644	6.47225535637e-05	0.01
    26	0.00992911777601	7.08822239918e-05	0.01
    27	0.00992198528175	7.80147182474e-05	0.01
    28	0.0099161530846	8.38469154033e-05	0.01
    29	failed
    30	failed
    31	0.00979977803134	0.000200221968657	0.01
    32	0.00978635642247	0.000213643577526	0.01
    33	0.00973677583482	0.000263224165182	0.01
    34	0.00967861754755	0.000321382452447	0.01
    35	0.00962133707818	0.000378662921825	0.01
    36	failed
    37	failed
    38	0.00866059499266	0.00133940500734	0.01
    39	0.00848106320069	0.00151893679931	0.01
    40	0.00797787232539	0.00202212767461	0.01
    41	0.00732853336669	0.00267146663331	0.01
    42	0.00677696698073	0.00322303301927	0.01
    43	failed
    44	failed
    45	0.00995823965025	4.17603497461e-05	0.01
    46	0.00994807363807	5.19263619267e-05	0.01
    47	0.0099386833519	6.1316648097e-05	0.01
    48	0.00993427878484	6.57212151614e-05	0.01
    49	0.00993533101302	6.46689869819e-05	0.01
    50	failed
    51	failed
    52	0.00995889185981	4.11081401931e-05	0.01
    53	0.0099580218455	4.19781545026e-05	0.01
    54	0.0099579650325	4.20349675006e-05	0.01
    55	0.00995818850831	4.1811491691e-05	0.01
    56	0.0099574136405	4.25863594968e-05	0.01
    57	failed
    58	failed
    59	0.00996055382206	3.94461779359e-05	0.01
    60	0.00995900042122	4.09995787753e-05	0.01
    61	0.00995950593316	4.04940668443e-05	0.01
    62	0.009954753789	4.5246211005e-05	0.01
    63	0.00995386793075	4.61320692531e-05	0.01
    64	failed
    65	failed
    66	0.00994705262743	5.29473725733e-05	0.01
    67	0.00993524758745	6.47524125489e-05	0.01
    68	0.00992883197853	7.11680214748e-05	0.01
    69	0.00992205036613	7.79496338691e-05	0.01
    70	0.00991394510658	8.60548934248e-05	0.01
    71	failed
    72	failed
    73	0.00979964362115	0.000200356378851	0.01
    74	0.0097980705436	0.000201929456404	0.01
    75	0.00973647577303	0.000263524226975	0.01
    76	0.00967843397031	0.000321566029687	0.01
    77	0.00961128315957	0.000388716840428	0.01
    78	failed
    79	failed
    80	0.00870787025092	0.00129212974908	0.01
    81	0.0084798857597	0.0015201142403	0.01
    82	0.00791451804484	0.00208548195516	0.01
    83	0.00732610814763	0.00267389185237	0.01
    84	0.00677387780041	0.00322612219959	0.01
    85	failed
    86	failed
    87	0.00995655732917	4.344267083e-05	0.01
    88	0.00994874691775	5.12530822529e-05	0.01
    89	0.00993868301308	6.13169869161e-05	0.01
    90	0.00993591856186	6.40814381443e-05	0.01
    91	0.00993506346348	6.49365365216e-05	0.01
    92	failed
    93	failed
    94	0.00995735841603	4.26415839729e-05	0.01
    95	0.009957912978	4.20870220021e-05	0.01
    96	0.00995526463106	4.4735368945e-05	0.01
    97	0.00995884357686	4.11564231417e-05	0.01
    98	0.00995847195967	4.15280403276e-05	0.01
    99	failed
   100	failed
   101	0.00996063623162	3.93637683816e-05	0.01
   102	0.00995958464679	4.0415353208e-05	0.01
   103	0.00995924645665	4.07535433466e-05	0.01
   104	0.00995899251453	4.10074854742e-05	0.01
   105	0.00995342304857	4.65769514279e-05	0.01
   106	failed
   107	failed
   108	0.00994420656814	5.57934318585e-05	0.01
   109	0.00993967186131	6.03281386861e-05	0.01
   110	0.00992805043569	7.19495643078e-05	0.01
   111	0.00992020072821	7.97992717892e-05	0.01
   112	0.00991386094808	8.61390519225e-05	0.01
   113	failed
   114	failed
   115	0.00980647149553	0.000193528504473	0.01
   116	0.00979794671581	0.000202053284193	0.01
   117	0.00973649953713	0.000263500462871	0.01
   118	0.00967843026188	0.00032156973812	0.01
   119	0.00962094972025	0.000379050279746	0.01
   120	failed
   121	failed
   122	0.00870758946322	0.00129241053678	0.01
   123	0.00847925643024	0.00152074356976	0.01
   124	0.00791348630467	0.00208651369533	0.01
   125	0.00732474304374	0.00267525695626	0.01
   126	0.00669945791933	0.00330054208067	0.01
   127	failed
   128	failed
   129	0.00995695932657	4.30406734277e-05	0.01
   130	0.0099477727273	5.22272726998e-05	0.01
   131	0.00993989921513	6.01007848741e-05	0.01
   132	0.00993534333394	6.46566660601e-05	0.01
   133	0.00995977951454	4.02204854614e-05	0.01
   134	failed
   135	failed
   136	0.0099565713068	4.34286931985e-05	0.01
   137	0.00995705734814	4.29426518642e-05	0.01
   138	0.0099547309022	4.52690978006e-05	0.01
   139	0.0099577596903	4.22403096962e-05	0.01
   140	0.00996515811062	3.48418893752e-05	0.01
   141	failed
   142	failed
   143	0.00995932319678	4.06768032247e-05	0.01
   144	0.00995877982262	4.12201773782e-05	0.01
   145	0.00995911885276	4.08811472429e-05	0.01
   146	0.00995594533421	4.40546657941e-05	0.01
   147	0.00995410576106	4.58942389361e-05	0.01
   148	failed
   149	failed
   150	0.00994689749813	5.31025018669e-05	0.01
   151	0.00993530793609	6.46920639073e-05	0.01
   152	0.00992913080886	7.08691911359e-05	0.01
   153	0.00992021614911	7.9783850893e-05	0.01
   154	0.00991556094395	8.44390560451e-05	0.01
   155	failed
   156	failed
   157	0.00979967291009	0.00020032708991	0.01
   158	0.00979799654156	0.000202003458441	0.01
   159	0.0097450938614	0.000254906138597	0.01
   160	0.0096781750438	0.000321824956204	0.01
   161	0.00961100164856	0.000388998351438	0.01
   162	failed
   163	failed
   164	0.00870744211277	0.00129255788723	0.01
   165	0.00847887624861	0.00152112375139	0.01
   166	0.00791299750675	0.00208700249325	0.01
   167	0.00732414094889	0.00267585905111	0.01
   168	0.00669883242494	0.00330116757506	0.01
   169	failed
   170	failed
   171	0.0099558348203	4.41651796963e-05	0.01
   172	0.00994951686778	5.04831322211e-05	0.01
   173	0.00993909840476	6.09015952398e-05	0.01
   174	0.00993441018811	6.55898118949e-05	0.01
   175	0.00993538983755	6.4610162447e-05	0.01
   176	failed
   177	failed
   178	0.00995961973404	4.03802659569e-05	0.01
   179	0.00995773460096	4.22653990425e-05	0.01
   180	0.00995715666374	4.28433362606e-05	0.01
   181	0.00995931514244	4.06848575649e-05	0.01
   182	0.00995963944957	4.03605504306e-05	0.01
   183	failed
   184	failed
   185	0.00995770038327	4.22996167288e-05	0.01
   186	0.00995848119587	4.15188041275e-05	0.01
   187	0.00995780371421	4.21962857893e-05	0.01
   188	0.00995789131846	4.21086815351e-05	0.01
   189	0.00995403348023	4.59665197736e-05	0.01
   190	failed
   191	failed
   192	0.00994415182959	5.58481704097e-05	0.01
   193	0.00993524941134	6.47505886566e-05	0.01
   194	0.0099291888834	7.08111166029e-05	0.01
   195	0.00992005451784	7.99454821618e-05	0.01
   196	0.00991612633884	8.38736611558e-05	0.01
   197	failed
   198	failed
   199	0.00980653627068	0.000193463729316	0.01
   200	0.00979791260416	0.000202087395836	0.01
   201	0.00973633739645	0.000263662603552	0.01
   202	0.00967821721996	0.000321782780037	0.01
   203	0.00961090592279	0.000389094077208	0.01
   204	failed
   205	failed
   206	0.00865953686311	0.00134046313689	0.01
   207	0.00847868375672	0.00152131624328	0.01
   208	0.00791284852539	0.00208715147461	0.01
   209	0.00732386286448	0.00267613713552	0.01
   210	0.00677111350676	0.00322888649324	0.01
   211	failed
   212	failed
   213	0.00995798367142	4.20163285828e-05	0.01
   214	0.00995058863308	4.94113669185e-05	0.01
   215	0.00994176499182	5.82350081782e-05	0.01
   216	0.00993381188979	6.61881102066e-05	0.01
   217	0.00993609780741	6.39021925925e-05	0.01
   218	failed
   219	failed
   220	0.00995738950303	4.26104969735e-05	0.01
   221	0.00995594857621	4.40514237883e-05	0.01
   222	0.00995718987725	4.2810122747e-05	0.01
   223	0.00995654563041	4.34543695909e-05	0.01
   224	0.00995515429141	4.48457085892e-05	0.01
   225	failed
   226	failed
   227	0.00995882184642	4.11781535807e-05	0.01
   228	0.009958344362	4.16556380042e-05	0.01
   229	0.0099569651421	4.30348578965e-05	0.01
   230	0.00995867385047	4.13261495261e-05	0.01
   231	0.00995317263778	4.68273622153e-05	0.01
   232	failed
   233	failed
   234	0.00994700802335	5.29919766497e-05	0.01
   235	0.00993531674389	6.46832561129e-05	0.01
   236	0.00992831124967	7.16887503324e-05	0.01
   237	0.00992205077871	7.79492212916e-05	0.01
   238	0.00991611047118	8.38895288219e-05	0.01
   239	failed
   240	failed
   241	0.00980647485771	0.00019352514229	0.01
   242	0.0097979122627	0.000202087737301	0.01
   243	0.00974518903146	0.000254810968535	0.01
   244	0.00967816364115	0.000321836358852	0.01
   245	0.00961093206232	0.000389067937676	0.01
   246	failed
   247	failed
   248	0.00870726845796	0.00129273154204	0.01
   249	0.00847867365122	0.00152132634878	0.01
   250	0.00791274643845	0.00208725356155	0.01
   251	0.00725633434993	0.00274366565007	0.01
   252	0.006771028163	0.003228971837	0.01
   253	failed
   254	failed
   255	0.009956133524	4.38664760023e-05	0.01
   256	0.00994933036196	5.06696380421e-05	0.01
   257	0.00993916365034	6.08363496587e-05	0.01
   258	0.00993067278565	6.93272143455e-05	0.01
   259	0.00993061998019	6.93800198058e-05	0.01
   260	failed
   261	failed
   262	0.00995520049971	4.47995002886e-05	0.01
   263	0.00995636276075	4.36372392544e-05	0.01
   264	0.0099550906824	4.49093175964e-05	0.01
   265	0.00995893019133	4.10698086694e-05	0.01
   266	0.00995555094809	4.44490519144e-05	0.01
   267	failed
   268	failed
   269	0.00995960947411	4.03905258949e-05	0.01
   270	0.00995984169646	4.01583035432e-05	0.01
   271	0.00995762384189	4.23761581093e-05	0.01
   272	0.00995849094718	4.15090528219e-05	0.01
   273	0.00996330282807	3.67288507815e-05	0.0100000316789
   274	failed
   275	failed
   276	0.00994678360757	5.32163924331e-05	0.01
   277	0.00993533105791	6.46689420894e-05	0.01
   278	0.00992844661277	7.15533872339e-05	0.01
   279	0.00992001474138	7.99852586156e-05	0.01
   280	0.00991612787359	8.38721264053e-05	0.01
   281	failed
   282	failed
   283	0.00980653518888	0.000193464811124	0.01
   284	0.00979795922362	0.000202040776376	0.01
   285	0.00973631732341	0.000263682676593	0.01
   286	0.00966880971758	0.000331190282424	0.01
   287	0.00961091124389	0.000389088756112	0.01
   288	failed
   289	failed
   290	0.00884186268553	0.00115817293377	0.0100000356193
   291	0.00847867632495	0.00152132367505	0.01
   292	0.00791272644423	0.00208727355577	0.01
   293	0.00725622291075	0.00274377708925	0.01
   294	0.00669786578441	0.00330213421559	0.01

Measurement: period
  step	't2 - t1'
     1	failed
     2	failed
     3	-3.39061924651e-06
     4	-3.34066619177e-06
     5	-3.36901279649e-06
     6	-3.28033620079e-06
     7	-3.28885746287e-06
     8	failed
     9	failed
    10	-3.46276385239e-06
    11	-3.33583264519e-06
    12	-3.37901989022e-06
    13	-3.22691167022e-06
    14	-3.27607494816e-06
    15	failed
    16	failed
    17	-3.71660882909e-06
    18	-3.83460599324e-06
    19	-3.8425277879e-06
    20	-4.02103730384e-06
    21	-4.17152737394e-06
    22	failed
    23	failed
    24	-5.41595398165e-06
    25	-6.23926408255e-06
    26	-6.7800377e-06
    27	-7.3978720632e-06
    28	-7.96906409732e-06
    29	failed
    30	failed
    31	-1.94309437946e-05
    32	-2.05359500401e-05
    33	-2.44400665318e-05
    34	-3.08540777762e-05
    35	-3.63434063901e-05
    36	failed
    37	failed
    38	-0.000130124165676
    39	-0.000155285251947
    40	-0.000194240593176
    41	-0.00025638168214
    42	-0.000309176974066
    43	failed
    44	failed
    45	-3.32924108504e-06
    46	-3.44920285904e-06
    47	-3.35076837771e-06
    48	-3.23484222224e-06
    49	-3.15113062054e-06
    50	failed
    51	failed
    52	-3.51037302673e-06
    53	-3.37070396062e-06
    54	-3.38742277949e-06
    55	-3.35961010488e-06
    56	-3.46639987905e-06
    57	failed
    58	failed
    59	-3.72189512345e-06
    60	-3.81568869134e-06
    61	-3.84898877221e-06
    62	-3.99994545239e-06
    63	-4.12450930026e-06
    64	failed
    65	failed
    66	-5.40513472098e-06
    67	-6.24431496792e-06
    68	-6.77847336723e-06
    69	-7.39926025181e-06
    70	-7.97633366964e-06
    71	failed
    72	failed
    73	-1.94334163311e-05
    74	-2.0544476629e-05
    75	-2.44583018376e-05
    76	-3.08797351253e-05
    77	-3.63621503412e-05
    78	failed
    79	failed
    80	-0.000130176183785
    81	-0.000155407597552
    82	-0.000194409464156
    83	-0.000256622324933
    84	-0.000309470156303
    85	failed
    86	failed
    87	-3.34399179101e-06
    88	-3.15708365189e-06
    89	-3.3429479434e-06
    90	-3.11917212721e-06
    91	-3.26235048426e-06
    92	failed
    93	failed
    94	-3.41107352327e-06
    95	-3.31995461278e-06
    96	-3.25977298491e-06
    97	-3.25006118773e-06
    98	-3.26163485547e-06
    99	failed
   100	failed
   101	-3.57570353706e-06
   102	-3.69980791366e-06
   103	-3.90680495368e-06
   104	-3.9630786855e-06
   105	-4.16565096139e-06
   106	failed
   107	failed
   108	-5.42915282213e-06
   109	-6.23653424051e-06
   110	-6.77760146583e-06
   111	-7.3973903939e-06
   112	-7.97346601952e-06
   113	failed
   114	failed
   115	-1.94325638383e-05
   116	-2.05504129136e-05
   117	-2.44604914666e-05
   118	-3.08850543033e-05
   119	-3.63752115487e-05
   120	failed
   121	failed
   122	-0.000130208108337
   123	-0.000155472268604
   124	-0.000194498139913
   125	-0.000256741499754
   126	-0.000309634998574
   127	failed
   128	failed
   129	-3.43382015391e-06
   130	-3.31406344112e-06
   131	-3.1632169356e-06
   132	-3.40707767962e-06
   133	-3.29631753759e-06
   134	failed
   135	failed
   136	-3.44886908009e-06
   137	-3.50598542274e-06
   138	-3.43388024524e-06
   139	-3.40944004416e-06
   140	-3.38718547074e-06
   141	failed
   142	failed
   143	-3.6996820557e-06
   144	-3.73859886039e-06
   145	-3.85087705517e-06
   146	-4.0220809429e-06
   147	-4.1223789428e-06
   148	failed
   149	failed
   150	-5.42495408232e-06
   151	-6.24112892568e-06
   152	-6.7817062109e-06
   153	-7.4000034016e-06
   154	-7.9717373992e-06
   155	failed
   156	failed
   157	-1.9432418075e-05
   158	-2.05486162485e-05
   159	-2.44653417549e-05
   160	-3.08883338813e-05
   161	-3.63835168224e-05
   162	failed
   163	failed
   164	-0.000130222494947
   165	-0.000155509917785
   166	-0.000194547301949
   167	-0.000256812507069
   168	-0.000309707943898
   169	failed
   170	failed
   171	-3.43795196728e-06
   172	-3.33559368348e-06
   173	-3.39864792325e-06
   174	-3.29269080364e-06
   175	-3.05964699471e-06
   176	failed
   177	failed
   178	-3.26190736348e-06
   179	-3.38218459224e-06
   180	-3.37499196848e-06
   181	-3.29370781603e-06
   182	-3.26939485361e-06
   183	failed
   184	failed
   185	-3.6751065201e-06
   186	-3.77690717967e-06
   187	-3.94043585244e-06
   188	-3.96475113214e-06
   189	-4.16685825553e-06
   190	failed
   191	failed
   192	-5.39329811217e-06
   193	-6.24271254952e-06
   194	-6.77748158978e-06
   195	-7.40102314036e-06
   196	-7.97548232573e-06
   197	failed
   198	failed
   199	-1.94332730166e-05
   200	-2.05490837004e-05
   201	-2.44679586619e-05
   202	-3.08995639042e-05
   203	-3.63882010819e-05
   204	failed
   205	failed
   206	-0.000130227305494
   207	-0.000155519526279
   208	-0.000194560631389
   209	-0.000256830557541
   210	-0.000309739667017
   211	failed
   212	failed
   213	-3.41627519239e-06
   214	-3.38022896532e-06
   215	-3.26564121563e-06
   216	-3.40333414773e-06
   217	-3.29749931725e-06
   218	failed
   219	failed
   220	-3.41012325218e-06
   221	-3.45170252448e-06
   222	-3.28990934331e-06
   223	-3.33366562106e-06
   224	-3.44042260499e-06
   225	failed
   226	failed
   227	-3.76370069657e-06
   228	-3.80783090659e-06
   229	-3.87588571859e-06
   230	-3.9815964452e-06
   231	-4.18937190996e-06
   232	failed
   233	failed
   234	-5.40853703167e-06
   235	-6.23882543298e-06
   236	-6.78007225724e-06
   237	-7.39875604996e-06
   238	-7.97618749449e-06
   239	failed
   240	failed
   241	-1.94322293626e-05
   242	-2.05499356515e-05
   243	-2.44710310062e-05
   244	-3.08955560044e-05
   245	-3.63874493344e-05
   246	failed
   247	failed
   248	-0.00013023022724
   249	-0.000155526172959
   250	-0.000194570865324
   251	-0.00025683875859
   252	-0.000309759807748
   253	failed
   254	failed
   255	-3.38702195674e-06
   256	-3.34014104067e-06
   257	-3.26631401088e-06
   258	-3.27077690521e-06
   259	-3.2676896165e-06
   260	failed
   261	failed
   262	-3.37044202998e-06
   263	-3.41094070162e-06
   264	-3.29820680302e-06
   265	-3.41870850865e-06
   266	-3.32831134429e-06
   267	failed
   268	failed
   269	-3.61765764627e-06
   270	-3.80215577174e-06
   271	-3.9005165872e-06
   272	-3.94475979753e-06
   273	-4.1466413614e-06
   274	failed
   275	failed
   276	-5.39651724333e-06
   277	-6.23715626989e-06
   278	-6.78240913681e-06
   279	-7.40148995086e-06
   280	-7.97210736094e-06
   281	failed
   282	failed
   283	-1.94330989912e-05
   284	-2.05540589884e-05
   285	-2.44706092403e-05
   286	-3.08919326177e-05
   287	-3.63764664413e-05
   288	failed
   289	failed
   290	-0.000130229353246
   291	-0.000155525727913
   292	-0.000194577369218
   293	-0.00025684913391
   294	-0.000309759683382

Measurement: freq
  step	{-1 / period}
     1	failed
     2	failed
     3	294931.37604
     4	299341.491366
     5	296822.855954
     6	304846.80191
     7	304056.959382
     8	failed
     9	failed
    10	288786.657892
    11	299775.230463
    12	295943.80397
    13	309893.824869
    14	305243.321909
    15	failed
    16	failed
    17	269062.483029
    18	260782.985726
    19	260245.352851
    20	248692.047459
    21	239720.349493
    22	failed
    23	failed
    24	184639.678141
    25	160275.312404
    26	147491.805245
    27	135174.005641
    28	125485.249935
    29	failed
    30	failed
    31	51464.3040796
    32	48695.0931438
    33	40916.4188935
    34	32410.626798
    35	27515.3074334
    36	failed
    37	failed
    38	7684.96762152
    39	6439.76158367
    40	5148.25445934
    41	3900.4346631
    42	3234.3935153
    43	failed
    44	failed
    45	300368.755058
    46	289922.060507
    47	298439.010781
    48	309134.087939
    49	317346.413215
    50	failed
    51	failed
    52	284870.01022
    53	296673.932711
    54	295209.681548
    55	297653.587405
    56	288483.739583
    57	failed
    58	failed
    59	268680.327315
    60	262075.887446
    61	259808.50015
    62	250003.409272
    63	242453.08404
    64	failed
    65	failed
    66	185009.264638
    67	160145.669323
    68	147525.843331
    69	135148.645401
    70	125370.883594
    71	failed
    72	failed
    73	51457.7562155
    74	48674.8831844
    75	40885.9129567
    76	32383.6974619
    77	27501.1238504
    78	failed
    79	failed
    80	7681.89672586
    81	6434.69184103
    82	5143.78250226
    83	3896.77710332
    84	3231.3293532
    85	failed
    86	failed
    87	299043.796306
    88	316748.021359
    89	299137.173815
    90	320597.889188
    91	306527.457679
    92	failed
    93	failed
    94	293162.839551
    95	301208.937059
    96	306769.828644
    97	307686.514881
    98	306594.712257
    99	failed
   100	failed
   101	279665.243395
   102	270284.302141
   103	255963.635722
   104	252329.080333
   105	240058.518889
   106	failed
   107	failed
   108	184190.7997
   109	160345.467761
   110	147544.821725
   111	135182.807281
   112	125415.973123
   113	failed
   114	failed
   115	51460.0136308
   116	48660.8227389
   117	40882.2529738
   118	32378.12018
   119	27491.2490519
   120	failed
   121	failed
   122	7680.01327082
   123	6432.0152332
   124	5141.43734458
   125	3894.96828896
   126	3229.60907069
   127	failed
   128	failed
   129	291220.843019
   130	301744.374472
   131	316133.866364
   132	293506.662904
   133	303368.831612
   134	failed
   135	failed
   136	289950.118946
   137	285226.513925
   138	291215.746789
   139	293303.295277
   140	295230.364159
   141	failed
   142	failed
   143	270293.496831
   144	267479.886809
   145	259681.102687
   146	248627.517496
   147	242578.378619
   148	failed
   149	failed
   150	184333.357449
   151	160227.422299
   152	147455.517668
   153	135135.073017
   154	125443.168775
   155	failed
   156	failed
   157	51460.3996344
   158	48665.0773906
   159	40874.1480099
   160	32374.6824235
   161	27484.9736182
   162	failed
   163	failed
   164	7679.16480485
   165	6430.45803279
   166	5140.13810514
   167	3893.89135059
   168	3228.84840283
   169	failed
   170	failed
   171	290870.846806
   172	299796.706342
   173	294234.655246
   174	303702.977181
   175	326835.089711
   176	failed
   177	failed
   178	306569.098557
   179	295666.890061
   180	296297.001397
   181	303609.2015
   182	305867.001319
   183	failed
   184	failed
   185	272100.956674
   186	264766.898531
   187	253779.032942
   188	252222.640633
   189	239988.964989
   190	failed
   191	failed
   192	185415.302325
   193	160186.776512
   194	147547.43141
   195	135116.453636
   196	125384.266325
   197	failed
   198	failed
   199	51458.1357008
   200	48663.9703541
   201	40869.7764214
   202	32362.9162891
   203	27481.4354727
   204	failed
   205	failed
   206	7678.88113944
   207	6430.06073854
   208	5139.78595187
   209	3893.61768154
   210	3228.51770854
   211	failed
   212	failed
   213	292716.465649
   214	295837.947742
   215	306218.57515
   216	293829.508532
   217	303260.108279
   218	failed
   219	failed
   220	293244.532836
   221	289712.103783
   222	303959.74346
   223	299970.097086
   224	290661.966512
   225	failed
   226	failed
   227	265695.941474
   228	262616.703454
   229	258005.543147
   230	251155.53868
   231	238699.266022
   232	failed
   233	failed
   234	184892.88215
   235	160286.581303
   236	147491.053496
   237	135157.855354
   238	125373.181196
   239	failed
   240	failed
   241	51460.8993823
   242	48661.9528625
   243	40864.6452103
   244	32367.1145409
   245	27482.0032261
   246	failed
   247	failed
   248	7678.70886196
   249	6429.78593875
   250	5139.51561213
   251	3893.49335549
   252	3228.30778876
   253	failed
   254	failed
   255	295244.616885
   256	299388.555101
   257	306155.500258
   258	305737.758637
   259	306026.617384
   260	failed
   261	failed
   262	296696.988438
   263	293174.255279
   264	303195.057109
   265	292508.120382
   266	300452.660991
   267	failed
   268	failed
   269	276421.955248
   270	263008.687712
   271	256376.297253
   272	253500.859704
   273	241159.027957
   274	failed
   275	failed
   276	185304.698366
   277	160329.476564
   278	147440.235443
   279	135107.931868
   280	125437.347332
   281	failed
   282	failed
   283	51458.5965137
   284	48652.1908186
   285	40865.3495375
   286	32370.9109551
   287	27490.3006759
   288	failed
   289	failed
   290	7678.76039522
   291	6429.80433796
   292	5139.34381998
   293	3893.33607934
   294	3228.30908491
